# opt am1

[No Title]

1 1
 C                 -6.59304600   -3.36817400   -1.07606900
 C                 -6.05990700   -4.65704800   -1.07616900
 C                 -4.68678900   -4.86531700   -0.90223100
 C                 -3.86594100   -3.74090300   -0.72853200
 C                 -4.40265500   -2.45837100   -0.72925600
 C                 -5.77652600   -2.24496100   -0.90297300
 N                 -2.50042900   -3.74461100   -0.54418100
 C                 -1.95373700   -2.55458600   -0.40373800
 S                 -3.13018500   -1.31669900   -0.49355200
 C                 -0.64730700   -2.34180200   -0.21523700
 C                 -0.18546000   -1.09408800   -0.08303700
 C                  1.12097000   -0.88130400    0.10546400
 C                 -1.69611400   -5.01017000   -0.50625000
 C                 -0.22701300   -4.67254400   -0.28880900
 C                  1.58281800    0.36641000    0.23766300
 C                  2.88924800    0.57919400    0.42616400
 C                  3.35109500    1.82690800    0.55836400
 S                  4.74956500    2.18638100    0.76750900
 C                  4.59304700    3.63572500    0.82739200
 C                  3.31193400    3.98605100    0.67380000
 N                  2.57828900    2.96618700    0.51760000
 C                  5.52806800    4.57679500    0.99379500
 C                  5.18133600    5.86793200    1.01144600
 C                  3.90096800    6.21845400    0.85302400
 C                  2.96589800    5.27743100    0.68661800
 C                  1.12159100    2.99380600    0.32222800
 C                  0.63393700    4.43654900    0.33697900
 H                 -7.67575600   -3.23204900   -1.21466800
 H                 -6.72695100   -5.52068300   -1.21468500
 H                 -4.26371400   -5.88070200   -0.90173900
 H                 -6.19882400   -1.22925200   -0.90327700
 H                  0.04756300   -3.19327700   -0.16891500
 H                 -0.88033000   -0.24261300   -0.12935900
 H                  1.81584000   -1.73277900    0.15178500
 H                 -2.05594000   -5.65293700    0.32810300
 H                 -1.81303900   -5.55291500   -1.47088800
 H                  0.36978900   -5.61158800   -0.26066500
 H                  0.13281300   -4.02977700   -1.12316200
 H                 -0.11008800   -4.12979800    0.67582800
 H                  0.88794800    1.21788500    0.19134200
 H                  3.58411700   -0.27228100    0.47248500
 H                  6.58261600    4.28878200    1.11617800
 H                  5.94955100    6.64179000    1.15631700
 H                  3.61679500    7.28109400    0.85958500
 H                  1.91188600    5.56568400    0.56025400
 H                  0.87021000    2.52777800   -0.65674800
 H                  0.62666300    2.42667900    1.14209500
 H                 -0.46899000    4.45746100    0.18905500
 H                  0.88531900    4.90257700    1.31595500
 H                  1.12886500    5.00367600   -0.48288800

