# SP Test

[No Title]

  0  1
C 0   -2.151368    0.016500    3.634112
C 0   -2.319684   -1.100803    4.459690
C 0   -1.480518   -2.210057    4.355824
C 0   -0.441090   -2.237920    3.418863
C 0   -0.270202   -1.119039    2.589904
C 0   -1.109582   -0.015966    2.697698
N 0    0.690114   -0.961797    1.614358
C 0    0.644893    0.184555    0.967373
S 0   -0.627751    1.171728    1.542114
C 0    1.485663    0.531710   -0.012504
C 0    1.006781    0.896385   -1.206343
S 0    1.819609    1.295174   -2.350441
C 0    0.742637    1.557922   -3.299006
C 0   -0.451851    1.332844   -2.742134
N 0   -0.328012    0.952098   -1.541113
C 0    0.821927    1.956746   -4.572671
C 0   -0.293450    2.135148   -5.287986
C 0   -1.487641    1.905424   -4.732611
C 0   -1.566998    1.506599   -3.458951
C 0   -1.440821    0.619671   -0.639974
C 0   -0.889123    0.205214    0.717738
C 0    1.711366   -2.017920    1.311625
C 0    2.621337   -1.538130    0.188556
H 0   -2.814256    0.890362    3.717452
H 0   -3.129061   -1.104322    5.204604
H 0   -1.637565   -3.073817    5.018587
H 0    0.222271   -3.111366    3.334933
H 0    2.571391    0.517296    0.163532
H 0    1.804824    2.138094   -5.032046
H 0   -0.228534    2.470944   -6.333465
H 0   -2.404942    2.044538   -5.323547
H 0   -2.549760    1.321425   -3.000816
H 0   -2.096769    1.510401   -0.517090
H 0   -2.030313   -0.219456   -1.072564
H 0   -1.731678   -0.046480    1.400029
H 0   -0.233174   -0.685516    0.594854
H 0   -0.299631    1.044341    1.150328
H 0    2.319851   -2.216680    2.222125
H 0    1.195904   -2.952971    0.997385
H 0    3.379107   -2.321773   -0.036071
H 0    2.012852   -1.339371   -0.721943
H 0    3.136800   -0.603079    0.502796
I 0    5.826447    0.671347    0.076795

