# SP Test

[No Title]

  0  1
C 0   -2.982221   -2.472578   -0.782266
C 0   -2.982273   -3.871962   -0.782292
C 0   -1.966158   -4.595457   -0.158195
C 0   -0.912438   -3.939966    0.489175
C 0   -0.909976   -2.537018    0.490625
C 0   -1.925381   -1.820801   -0.133021
N 0    0.035707   -1.720481    1.071635
C 0   -0.184347   -0.428940    0.936529
S 0   -1.619437   -0.132832    0.054884
C 0    0.611712    0.527412    1.425662
C 0    1.107670    1.465291    0.612041
S 0    1.983909    2.556390    1.024822
C 0    2.158394    3.196269   -0.274713
C 0    1.480042    2.544402   -1.224700
N 0    0.868258    1.546761   -0.741803
C 0    2.881344    4.275625   -0.590787
C 0    2.922045    4.705939   -1.855992
C 0    2.247638    4.051281   -2.806730
C 0    1.524669    2.971918   -2.490720
C 0    0.184629    0.692452   -1.521982
C 0   -0.147001    1.070725   -2.752490
C 0    1.227507   -2.262339    1.803758
C 0    2.073288   -1.107290    2.323416
H 0   -3.784427   -1.903725   -1.275087
H 0   -3.799076   -4.411552   -1.283966
H 0   -1.993255   -5.694996   -0.174978
H 0   -0.109887   -4.508083    0.982284
H 0    0.858617    0.542611    2.497486
H 0    3.442656    4.809617    0.190098
H 0    3.510432    5.598627   -2.114657
H 0    2.287551    4.400666   -3.849005
H 0    0.966573    2.435620   -3.272329
H 0    0.184629    0.692452   -1.521982
H 0    0.184629    0.692452   -1.521982
H 0    0.772465    1.340188   -3.318831
H 0   -0.660594    0.231848   -3.273331
H 0   -0.837829    1.941794   -2.699906
H 0    1.836363   -2.885527    1.111154
H 0    0.884573   -2.885006    2.660176
H 0    1.464432   -0.484102    3.016020
H 0    2.416221   -0.484623    1.466998
H 0    2.957603   -1.509349    2.866652

