# SP Test

[No Title]

  0  1
C 0   -4.872607    0.781815    1.218615
C 0   -4.872659   -0.612973    1.218590
C 0   -3.670784   -1.330314    1.218672
C 0   -2.469828   -0.605073    1.218577
C 0   -2.475563    0.785220    1.218615
C 0   -3.676150    1.507601    1.218569
N 0   -1.196028   -1.130483    1.218655
C 0   -0.225736   -0.239814    1.218670
S 0   -0.846176    1.353772    1.218546
C 0    1.076530   -0.542588    1.218770
C 0    1.876677   -0.053364    0.265883
C 0    3.580222    0.475794   -1.039708
S 0    3.308854   -0.310495    0.158954
C 0    2.465178    1.056968   -1.494114
N 0    1.472956    0.769119   -0.762407
C 0    4.736729    0.650391   -1.687454
C 0    4.779119    1.410084   -2.786835
C 0    3.663230    1.987272   -3.243946
C 0    2.506691    1.812714   -2.596245
C 0    0.097660    1.241420   -0.977794
C 0   -0.933813   -2.607386    1.218719
C 0    0.568595   -2.856982    1.218799
C 0   -0.808614    0.681000    0.110382
H 0   -5.831128    1.321480    1.218673
H 0   -5.829260   -1.156033    1.218504
H 0   -3.667940   -2.430311    1.218807
H 0   -3.678133    2.607599    1.218498
H 0    1.489643   -1.194193    2.002829
H 0    5.653356    0.169012   -1.315877
H 0    5.732149    1.560202   -3.315229
H 0    3.696607    2.605807   -4.152957
H 0    1.589318    2.290878   -2.970122
H 0    0.077729    2.353603   -0.940105
H 0   -0.261227    0.896557   -1.973304
H 0   -1.385216   -3.063746    2.127972
H 0   -1.385576   -3.064260    0.309904
H 0    0.763159   -3.952844    1.218847
H 0    1.019998   -2.400622    0.309547
H 0    1.020358   -2.400107    2.127615
H 0   -1.849910    1.038600   -0.052697
H 0   -0.788683   -0.431183    0.072693
H 0   -0.449727    1.025863    1.105891

