# SP Test

[No Title]

  0  1
C 0    4.718995   -1.009984    0.273532
C 0    5.752213   -0.516885   -0.531197
C 0    5.484347    0.272709   -1.649331
C 0    4.168626    0.596321   -2.000379
C 0    3.130891    0.103182   -1.195276
C 0    3.403566   -0.683460   -0.081816
N 0    1.781544    0.313195   -1.379064
C 0    1.001661   -0.257661   -0.484267
S 0    1.915838   -1.117302    0.677525
C 0   -0.332820   -0.175624   -0.484267
C 0   -1.008624   -0.273908    0.665167
N 0   -2.269873   -0.206921    0.751879
C 0   -2.649191   -0.329775    1.953454
C 0   -1.604326   -0.493512    2.771388
S 0   -0.349954   -0.479993    2.026372
C 0   -3.891284   -0.326199    2.448187
C 0   -4.088230   -0.481514    3.761450
C 0   -3.043717   -0.650078    4.578692
C 0   -1.801600   -0.653664    4.084020
C 0    1.240868    1.131335   -2.514104
C 0   -0.279555    1.169505   -2.434193
C 0   -3.173856   -0.012333   -0.390858
C 0   -2.357780    0.093400   -1.672408
H 0    4.932226   -1.632633    1.154918
H 0    6.795305   -0.756512   -0.277156
H 0    6.317578    0.645780   -2.262962
H 0    3.954555    1.218962   -2.881567
H 0   -0.874738   -0.027266   -1.429949
H 0   -4.751166   -0.195473    1.774752
H 0   -5.109689   -0.470603    4.169495
H 0   -3.206233   -0.785825    5.658118
H 0   -0.941967   -0.788378    4.756987
H 0    1.641470    2.167607   -2.447563
H 0    1.550048    0.674455   -3.480767
H 0   -0.680737    1.776565   -3.276392
H 0   -0.680157    0.133233   -2.500734
H 0   -0.588736    1.626385   -1.467530
H 0   -3.869181   -0.878256   -0.464817
H 0   -3.759071    0.923190   -0.245638
H 0   -3.042224    0.240732   -2.537624
H 0   -1.662455    0.959324   -1.598449
H 0   -1.772565   -0.842123   -1.817628

