# SP Test

[No Title]

  0  1
C 0   -5.118570   -3.539986    1.017127
C 0   -4.879767   -4.338851   -0.101007
C 0   -3.768619   -4.111185   -0.921129
C 0   -2.905366   -3.057671   -0.584719
C 0   -3.148150   -2.264463    0.530999
C 0   -4.259083   -2.488580    1.354918
N 0   -1.767946   -2.681861   -1.265649
C 0   -1.122630   -1.656222   -0.749521
S 0   -1.905767   -1.073078    0.654438
C 0    0.000081   -1.137789   -1.257769
C 0    0.583882   -0.093296   -0.661297
C 0    1.706593    0.425137   -1.169545
C 0   -1.299381   -3.388468   -2.503047
C 0   -0.021217   -2.733228   -3.009494
C 0    2.290395    1.469630   -0.573074
S 0    3.513196    2.121323   -1.029949
C 0    3.613787    3.142508    0.007231
C 0    2.601938    3.044709    0.875659
N 0    1.827938    2.092234    0.565059
C 0    4.534781    4.099750    0.158976
C 0    4.446592    4.956152    1.181897
C 0    3.432155    4.861375    2.047483
C 0    2.511128    3.904155    1.895794
C 0    0.618315    1.708729    1.307107
C 0    0.441881    2.633275    2.504443
H 0   -5.999114   -3.740205    1.645263
H 0   -5.573393   -5.158082   -0.341307
H 0   -3.577831   -4.739772   -1.803443
H 0   -4.449128   -1.859575    2.237094
H 0    0.443462   -1.570599   -2.166663
H 0    0.140501    0.339514    0.247597
H 0    2.149975   -0.007673   -2.078440
H 0   -1.098923   -4.457272   -2.265889
H 0   -2.085849   -3.322845   -3.287859
H 0    0.326458   -3.257530   -3.927643
H 0   -0.221675   -1.664424   -3.246652
H 0    0.765251   -2.798851   -2.224682
H 0    5.365074    4.182715   -0.557774
H 0    5.208714    5.738729    1.311290
H 0    3.355239    5.570944    2.884499
H 0    1.678653    3.823713    2.610296
H 0   -0.268279    1.793676    0.639646
H 0    0.717938    0.658278    1.661223
H 0   -0.473976    2.342907    3.066279
H 0    1.328475    2.548328    3.171905
H 0    0.342258    3.683726    2.150327

