# opt td am1

[No Title]

1 1
 C                  6.39982300   -2.13350500   -0.56444600
 C                  6.91975900   -0.84793100   -0.36936800
 C                  6.08538600    0.25105500   -0.19333900
 C                  4.69629800    0.04664700   -0.21777300
 C                  4.16708700   -1.26428700   -0.40943300
 C                  5.02510200   -2.34690500   -0.58418700
 N                  3.68490300    1.02294200   -0.07670800
 C                  2.42051100    0.46899300   -0.11301500
 S                  2.46942800   -1.23203600   -0.38082400
 C                  1.22919500    1.18039000    0.03866000
 C                 -0.02665500    0.57376000   -0.03832700
 C                 -1.20151800    1.29387100    0.03304100
 C                  3.95527000    2.42944500    0.13057800
 C                  3.95527900    2.87286200    1.58424200
 C                 -2.51519500    0.79819100   -0.03721000
 S                 -3.71547000    1.84875300   -0.65735600
 C                 -4.92776400    0.67675300   -0.53549300
 C                 -4.39165200   -0.54134300   -0.02096700
 N                 -3.00744300   -0.44759400    0.27272100
 C                 -6.27820300    0.75403900   -0.87532900
 C                 -7.08330600   -0.36823200   -0.71935900
 C                 -6.55096100   -1.56915400   -0.22941800
 C                 -5.21073400   -1.67368300    0.12331100
 C                 -2.34911000   -1.45375000    1.08381600
 C                 -2.89858900   -1.59244300    2.49574400
 H                  7.08665800   -2.98382000   -0.70240600
 H                  8.01258300   -0.70160600   -0.35358900
 H                  6.51247600    1.25229800   -0.03484900
 H                  4.61895700   -3.35921500   -0.73608400
 H                  1.27461400    2.26596400    0.23055300
 H                 -0.06061900   -0.52043100   -0.21047100
 H                 -1.12902500    2.39796800    0.07534300
 H                  4.96004300    2.65536200   -0.33087600
 H                  3.17711200    3.01599800   -0.44033300
 H                  4.17857600    3.96757600    1.61688200
 H                  2.96088300    2.69665800    2.06066300
 H                  4.73400700    2.33295200    2.17467500
 H                 -6.69821600    1.69393100   -1.26787300
 H                 -8.15123000   -0.31644300   -0.98712500
 H                 -7.20759400   -2.44862500   -0.12165300
 H                 -4.80297800   -2.62263900    0.50281800
 H                 -2.45172700   -2.43706500    0.53839500
 H                 -1.25565600   -1.19714700    1.15695000
 H                 -2.34728100   -2.42209600    3.00313900
 H                 -2.74935400   -0.65443300    3.08275300
 H                 -3.98791900   -1.83874200    2.49151400

