# opt pbepbe/6-311g sp test

[No Title]

0 2
 C                 -5.11857000   -3.53998600    1.01712700
 C                 -4.87976700   -4.33885100   -0.10100700
 C                 -3.76861900   -4.11118500   -0.92112900
 C                 -2.90536600   -3.05767100   -0.58471900
 C                 -3.14815000   -2.26446300    0.53099900
 C                 -4.25908300   -2.48858000    1.35491800
 N                 -1.76794600   -2.68186100   -1.26564900
 C                 -1.12263000   -1.65622200   -0.74952100
 S                 -1.90576700   -1.07307800    0.65443800
 C                  0.00008100   -1.13778900   -1.25776900
 C                  0.58388200   -0.09329600   -0.66129700
 C                  1.70659300    0.42513700   -1.16954500
 C                 -1.29938100   -3.38846800   -2.50304700
 C                 -0.02121700   -2.73322800   -3.00949400
 C                  2.29039500    1.46963000   -0.57307400
 S                  3.51319600    2.12132300   -1.02994900
 C                  3.61378700    3.14250800    0.00723100
 C                  2.60193800    3.04470900    0.87565900
 N                  1.82793800    2.09223400    0.56505900
 C                  4.53478100    4.09975000    0.15897600
 C                  4.44659200    4.95615200    1.18189700
 C                  3.43215500    4.86137500    2.04748300
 C                  2.51112800    3.90415500    1.89579400
 C                  0.61831500    1.70872900    1.30710700
 C                  0.44188100    2.63327500    2.50444300
 H                 -5.99911400   -3.74020500    1.64526300
 H                 -5.57339300   -5.15808200   -0.34130700
 H                 -3.57783100   -4.73977200   -1.80344300
 H                 -4.44912800   -1.85957500    2.23709400
 H                  0.44346200   -1.57059900   -2.16666300
 H                  0.14050100    0.33951400    0.24759700
 H                  2.14997500   -0.00767300   -2.07844000
 H                 -1.09892300   -4.45727200   -2.26588900
 H                 -2.08584900   -3.32284500   -3.28785900
 H                  0.32645800   -3.25753000   -3.92764300
 H                 -0.22167500   -1.66442400   -3.24665200
 H                  0.76525100   -2.79885100   -2.22468200
 H                  5.36507400    4.18271500   -0.55777400
 H                  5.20871400    5.73872900    1.31129000
 H                  3.35523900    5.57094400    2.88449900
 H                  1.67865300    3.82371300    2.61029600
 H                 -0.26827900    1.79367600    0.63964600
 H                  0.71793800    0.65827800    1.66122300
 H                 -0.47397600    2.34290700    3.06627900
 H                  1.32847500    2.54832800    3.17190500
 H                  0.34225800    3.68372600    2.15032700

