# opt=gdiis b3lyp/6-31g(d) scrf=(smd,solvent=ethanol)

[No Title]

1 1
 C                 -2.13764332   -6.11014722    0.00000000
 C                 -0.84855529   -6.64276750    0.00000000
 C                  0.27334741   -5.80585888    0.00000000
 C                  0.06161945   -4.41897808    0.00000000
 C                 -1.22552352   -3.89342206    0.00000000
 C                 -2.35159222   -4.72721595    0.00000000
 N                  1.03359592   -3.44230780    0.00000000
 C                  0.58090012   -2.20544889    0.00000000
 S                 -1.12884553   -2.17040083    0.00000000
 C                  1.35797897   -1.11746123    0.00000000
 C                  0.80429380    0.09950130    0.00000000
 C                  1.58137266    1.18748896    0.00000000
 C                  2.49871827   -3.76388799    0.00000000
 C                  3.30306978   -2.47061708    0.00000000
 C                  1.02768877    2.40445206    0.00000000
 S                  1.76646504    3.66258169    0.00000000
 C                  0.63135449    4.57920580    0.00000000
 C                 -0.52560545    3.90912092    0.00000000
 N                 -0.32584807    2.65898016    0.00000000
 C                  0.62951190    5.91615787    0.00000000
 C                 -0.52928377    6.58303701    0.00000000
 C                 -1.68613056    5.91296984    0.00000000
 C                 -1.68435659    4.57601704    0.00000000
 C                 -1.37945181    1.63388588    0.00000000
 C                 -2.74496745    2.30834189    0.00000000
 H                 -3.00241152   -6.78998256    0.00000000
 H                 -0.71190310   -7.73424592    0.00000000
 H                  1.29108469   -6.22324213    0.00000000
 H                 -3.36900204   -4.30903626    0.00000000
 H                  2.45284799   -1.22357446    0.00000000
 H                 -0.29057521    0.20561452    0.00000000
 H                  2.67624296    1.08137631    0.00000000
 H                  2.74908148   -4.35620446    0.90488863
 H                  2.74908148   -4.35620446   -0.90488863
 H                  4.39019008   -2.70922942    0.00000000
 H                  3.05270657   -1.87830060   -0.91149908
 H                  3.05270657   -1.87830060    0.91149908
 H                  1.58138135    6.46745222    0.00000000
 H                 -0.53081659    7.68303502    0.00000000
 H                 -2.63945695    6.46160827    0.00000000
 H                 -2.63624372    4.02473726    0.00000000
 H                 -1.28030872    1.00073884   -0.90442808
 H                 -1.28030872    1.00073884    0.90442808
 H                 -3.54269554    1.53219938    0.00000000
 H                 -2.84411136    2.94148904    0.91751281
 H                 -2.84411136    2.94148904   -0.91751281

