# opt td am1

[No Title]

1 1
 C                  7.62066500   -2.16346100   -0.68941000
 C                  8.14012400   -0.93901700   -0.25237700
 C                  7.30522400    0.11153100    0.11439300
 C                  5.91626700   -0.08059300    0.04054800
 C                  5.38733300   -1.32624600   -0.41144000
 C                  6.24577100   -2.36130500   -0.77160500
 N                  4.90549400    0.84436500    0.38223700
 C                  3.63896200    0.33927700    0.15160400
 S                  3.68946200   -1.28484800   -0.42473200
 C                  2.44885400    1.03377900    0.35601500
 C                  1.19348400    0.45129500    0.16133600
 C                  0.00584400    1.13488400    0.34978900
 C                  5.17477200    2.18488900    0.85357700
 C                  5.18125500    3.25431600   -0.22654200
 C                 -1.24605300    0.53633200    0.15574800
 C                 -2.42883700    1.23711000    0.27076500
 C                 -3.73571000    0.75247400    0.09330400
 S                 -4.92346600    1.87467400   -0.41875900
 C                 -6.13135200    0.69403600   -0.49423800
 C                 -5.60392500   -0.58075300   -0.13015300
 N                 -4.23030900   -0.52490100    0.21723700
 C                 -7.47070600    0.81322200   -0.86403400
 C                 -8.27335300   -0.32142100   -0.88538700
 C                 -7.74923100   -1.57583400   -0.54323200
 C                 -6.42018100   -1.72373900   -0.16464000
 C                 -3.59322400   -1.62866400    0.90935400
 C                 -4.18586700   -1.95207600    2.27279800
 H                  8.30737300   -2.97682900   -0.97247200
 H                  9.23266000   -0.80168300   -0.19828700
 H                  7.73176900    1.06858400    0.44876500
 H                  5.83975300   -3.32435400   -1.11838800
 H                  2.48922200    2.08834100    0.67780000
 H                  1.15270100   -0.60915600   -0.16051100
 H                  0.04033600    2.19225800    0.66188100
 H                  4.39264400    2.43952700    1.62746400
 H                  6.17687200    2.16955500    1.37216000
 H                  5.40175200    4.23845200    0.25492500
 H                  5.96416700    3.05060300   -0.99596300
 H                  4.18974300    3.31975600   -0.73601200
 H                 -1.26092000   -0.52771400   -0.14853900
 H                 -2.36506500    2.32820700    0.45117600
 H                 -7.88391900    1.79630900   -1.14072900
 H                 -9.33246300   -0.23642300   -1.17805900
 H                 -8.40326400   -2.46311200   -0.57498000
 H                 -6.01859100   -2.71395500    0.09790500
 H                 -3.67462000   -2.53169900    0.23646900
 H                 -2.50355100   -1.38421300    1.04980800
 H                 -3.64703200   -2.84101900    2.68391900
 H                 -4.05905700   -1.09933700    2.98237200
 H                 -5.27344800   -2.19578200    2.20178000

