# SP Test

[No Title]

  0  1
C 0   -6.593046   -3.368174   -1.076069
C 0   -6.059907   -4.657048   -1.076169
C 0   -4.686789   -4.865317   -0.902231
C 0   -3.865941   -3.740903   -0.728532
C 0   -4.402655   -2.458371   -0.729256
C 0   -5.776526   -2.244961   -0.902973
N 0   -2.500429   -3.744611   -0.544181
C 0   -1.953737   -2.554586   -0.403738
S 0   -3.130185   -1.316699   -0.493552
C 0   -0.647307   -2.341802   -0.215237
C 0   -0.185460   -1.094088   -0.083037
C 0    1.120970   -0.881304    0.105464
C 0   -1.696114   -5.010170   -0.506250
C 0   -0.227013   -4.672544   -0.288809
C 0    1.582818    0.366410    0.237663
C 0    2.889248    0.579194    0.426164
C 0    3.351095    1.826908    0.558364
S 0    4.749565    2.186381    0.767509
C 0    4.593047    3.635725    0.827392
C 0    3.311934    3.986051    0.673800
N 0    2.578289    2.966187    0.517600
C 0    5.528068    4.576795    0.993795
C 0    5.181336    5.867932    1.011446
C 0    3.900968    6.218454    0.853024
C 0    2.965898    5.277431    0.686618
C 0    1.121591    2.993806    0.322228
C 0    0.633937    4.436549    0.336979
H 0   -7.675756   -3.232049   -1.214668
H 0   -6.726951   -5.520683   -1.214685
H 0   -4.263714   -5.880702   -0.901739
H 0   -6.198824   -1.229252   -0.903277
H 0    0.047563   -3.193277   -0.168915
H 0   -0.880330   -0.242613   -0.129359
H 0    1.815840   -1.732779    0.151785
H 0   -2.055940   -5.652937    0.328103
H 0   -1.813039   -5.552915   -1.470888
H 0    0.369789   -5.611588   -0.260665
H 0    0.132813   -4.029777   -1.123162
H 0   -0.110088   -4.129798    0.675828
H 0    0.887948    1.217885    0.191342
H 0    3.584117   -0.272281    0.472485
H 0    6.582616    4.288782    1.116178
H 0    5.949551    6.641790    1.156317
H 0    3.616795    7.281094    0.859585
H 0    1.911886    5.565684    0.560254
H 0    0.870210    2.527778   -0.656748
H 0    0.626663    2.426679    1.142095
H 0   -0.468990    4.457461    0.189055
H 0    0.885319    4.902577    1.315955
H 0    1.128865    5.003676   -0.482888

