# opt b3lyp/6-31g(d)

[No Title]

1 1
 C                 -7.30457499    2.20598108    0.00000000
 C                 -7.81584738    0.90827897    0.00000000
 C                 -6.96053675   -0.19965916    0.00000000
 C                 -5.57733884    0.03492963    0.00000000
 C                 -5.07309757    1.33057168    0.00000000
 C                 -5.92536315    2.44272545    0.00000000
 N                 -4.58476024   -0.92079509    0.00000000
 C                 -3.35554111   -0.44774720    0.00000000
 S                 -3.34871505    1.26234376    0.00000000
 C                 -2.25487652   -1.20676397    0.00000000
 C                 -1.04721691   -0.63306907    0.00000000
 C                  0.05344768   -1.39208585    0.00000000
 C                 -4.88211596   -2.39102553    0.00000000
 C                 -3.57574616   -3.17392245    0.00000000
 C                  1.26110786   -0.81839158    0.00000000
 C                  2.36177245   -1.57740836    0.00000000
 C                  3.56943206   -1.00371346    0.00000000
 S                  4.83958286   -1.72162551    0.00000000
 C                  5.73734865   -0.57154066    0.00000000
 C                  5.04826037    0.57420201    0.00000000
 N                  3.80158682    0.35383922    0.00000000
 C                  7.07408488   -0.54763282    0.00000000
 C                  7.72174742    0.62201130    0.00000000
 C                  7.03267702    1.76764187    0.00000000
 C                  5.69593802    1.74380192    0.00000000
 C                  2.75924161    1.39038082    0.00000000
 C                  3.41107043    2.76684262    0.00000000
 H                 -7.99858978    3.05941173    0.00000000
 H                 -8.90492154    0.75363021    0.00000000
 H                 -7.36106719   -1.22414596    0.00000000
 H                 -5.52403156    3.46689911    0.00000000
 H                 -2.34290477   -2.30323531    0.00000000
 H                 -0.95918866    0.46340226    0.00000000
 H                 -0.03458071   -2.48855713    0.00000000
 H                 -5.47000444   -2.65115715    0.90496655
 H                 -5.47000444   -2.65115715   -0.90496655
 H                 -3.79638349   -4.26483301    0.00000000
 H                 -2.98785768   -2.91379083   -0.91201699
 H                 -2.98785768   -2.91379083    0.91201699
 H                  1.34913625    0.27807969    0.00000000
 H                  2.27374336   -2.67387894    0.00000000
 H                  7.64101295   -1.49027400    0.00000000
 H                  8.82156948    0.64169872    0.00000000
 H                  7.56550387    2.72989416    0.00000000
 H                  5.12902340    2.68646118    0.00000000
 H                  2.12760228    1.28082817   -0.90396870
 H                  2.12760228    1.28082817    0.90396870
 H                  2.62186766    3.55165198    0.00000000
 H                  4.04271047    2.87639458    0.91756476
 H                  4.04271047    2.87639458   -0.91756476

