# td pbepbe/6-311g(d) scrf=(solvent=ethanol) sp test

[No Title]

1 1
 C                  7.30457500   -2.20598100   -0.00042300
 C                  7.81584700   -0.90827900   -0.00220600
 C                  6.96053700    0.19965900   -0.00272500
 C                  5.57733900   -0.03493000   -0.00160500
 C                  5.07309800   -1.33057200    0.00018400
 C                  5.92536300   -2.44272500    0.00074500
 N                  4.58476000    0.92079500   -0.00186700
 C                  3.35554100    0.44774700   -0.00048600
 S                  3.34871500   -1.26234400    0.00124000
 C                  2.25487700    1.20676400   -0.00044000
 C                  1.04721700    0.63306900    0.00102700
 C                 -0.05344800    1.39208600    0.00107300
 C                  4.88211600    2.39102600   -0.00359700
 C                  3.57574600    3.17392200   -0.00345300
 C                 -1.26110800    0.81839200    0.00253900
 C                 -2.36177200    1.57740800    0.00258600
 C                 -3.56943200    1.00371300    0.00405300
 S                 -4.83958300    1.72162600    0.00426500
 C                 -5.73734900    0.57154100    0.00608300
 C                 -5.04826000   -0.57420200    0.00672900
 N                 -3.80158700   -0.35383900    0.00559000
 C                 -7.07408500    0.54763300   -0.00539000
 C                 -7.72174700   -0.62201100   -0.01132800
 C                 -7.03267700   -1.76764200   -0.01557200
 C                 -5.69593800   -1.74380200   -0.00409800
 C                 -2.75924200   -1.39038100    0.00586600
 C                 -3.41107000   -2.76684300    0.00773100
 H                  7.99859000   -3.05941200    0.00007300
 H                  8.90492200   -0.75363000   -0.00321700
 H                  7.36106700    1.22414600   -0.00397500
 H                  5.52403200   -3.46689900    0.00205900
 H                  2.34290500    2.30323500   -0.00160800
 H                  0.95918900   -0.46340200    0.00219500
 H                  0.03458100    2.48855700   -0.00009500
 H                  5.47000400    2.65115700    0.90496700
 H                  5.46926300    2.64954100   -0.91310100
 H                  3.79638300    4.26483300   -0.00473800
 H                  2.98785800    2.91379100   -0.91201700
 H                  2.98859800    2.91540600    0.90605000
 H                 -1.34913600   -0.27808000    0.00370800
 H                 -2.27374300    2.67387900    0.00141700
 H                 -7.64101300    1.49027400   -0.00994400
 H                 -8.82156900   -0.64169900   -0.01272200
 H                 -7.56550400   -2.72989400   -0.02850200
 H                 -5.12902300   -2.68646100   -0.00356700
 H                 -2.12760200   -1.28082800   -0.90396900
 H                 -2.12563800   -1.27888900    0.91409700
 H                 -2.62186800   -3.55165200    0.00794000
 H                 -4.04271000   -2.87639500    0.91756500
 H                 -4.04467400   -2.87833400   -0.90050100

