# opt td am1

[No Title]

1 1
 C                 -8.82221700    2.24297900   -0.69257600
 C                 -9.34881900    1.01726800   -0.27137000
 C                 -8.51984000   -0.03980300    0.09259200
 C                 -7.13004500    0.14720400    0.03227700
 C                 -6.59402400    1.39542000   -0.40418800
 C                 -7.44510600    2.43606000   -0.76149700
 N                 -6.12740900   -0.78385300    0.37714300
 C                 -4.85166800   -0.28512400    0.15658400
 S                 -4.89441600    1.35058900   -0.40418000
 C                 -3.67239900   -0.98185300    0.35901800
 C                 -2.40700200   -0.39814000    0.16733000
 C                 -1.22775200   -1.07907600    0.35695500
 C                 -6.40494300   -2.13133900    0.81702800
 C                 -6.40749500   -3.18004000   -0.28370100
 C                  0.03166200   -0.48019100    0.16040000
 C                  1.22150400   -1.15030400    0.34063900
 C                  2.47230600   -0.53780800    0.14365500
 C                  3.65804600   -1.22639300    0.25161800
 C                  4.96143600   -0.72421000    0.06184200
 S                  6.14659200   -1.81517900   -0.50920700
 C                  7.34268000   -0.62276600   -0.56338900
 C                  6.81101400    0.63391900   -0.14523600
 N                  5.44487100    0.55124300    0.22351300
 C                  8.67724600   -0.71626700   -0.95904100
 C                  9.46940000    0.42534700   -0.95237400
 C                  8.94046300    1.66247300   -0.55655600
 C                  7.61708000    1.78510200   -0.15165500
 C                  4.79672100    1.63338100    0.94013000
 C                  5.39088500    1.93402300    2.30794200
 H                 -9.50281900    3.06158900   -0.97369500
 H                -10.44178200    0.88249500   -0.22708500
 H                 -8.95275800   -0.99786500    0.41487300
 H                 -7.03292900    3.40068500   -1.09573900
 H                 -3.71046800   -2.03697600    0.67779100
 H                 -2.37022700    0.66279100   -0.15288900
 H                 -1.25597400   -2.13526900    0.67386500
 H                 -5.62939500   -2.40549800    1.59085300
 H                 -7.41057900   -2.12401400    1.32869200
 H                 -6.63402300   -4.17293600    0.17593200
 H                 -7.18422100   -2.95804600   -1.05423000
 H                 -5.41269200   -3.23767400   -0.78762100
 H                  0.05366000    0.58108400   -0.15556700
 H                  1.20209700   -2.20961600    0.64873300
 H                  2.47350300    0.52810400   -0.15478600
 H                  3.61031400   -2.31759600    0.43612200
 H                  9.09406700   -1.68513700   -1.27760200
 H                 10.52437400    0.36082900   -1.26496100
 H                  9.58697400    2.55587500   -0.56688500
 H                  7.21128000    2.76155300    0.15294700
 H                  4.86510400    2.55111400    0.28592600
 H                  3.71030600    1.37240800    1.07839600
 H                  4.84274100    2.80748200    2.73973000
 H                  5.27642200    1.06489800    2.99956800
 H                  6.47518300    2.19226300    2.23868000

