# SP Test

[No Title]

  0  1
C 0   -8.347923   -2.280251    0.003238
C 0   -8.116070   -3.655634    0.003138
C 0   -6.811655   -4.163162    0.003104
C 0   -5.747997   -3.248339    0.002970
C 0   -5.984809   -1.878350    0.003084
C 0   -7.288791   -1.365639    0.003153
N 0   -4.404570   -3.554648    0.002939
C 0   -3.595870   -2.515051    0.002939
S 0   -4.472631   -1.046803    0.002939
C 0   -2.261389   -2.597090    0.002939
C 0   -1.523101   -1.482415    0.002939
C 0   -0.188620   -1.564454    0.002939
C 0   -3.900448   -4.967397    0.002908
C 0   -2.377453   -4.963722    0.002878
C 0    0.549668   -0.449779    0.002939
C 0    1.884148   -0.531818    0.002939
C 0    2.622436    0.582857    0.002939
C 0    3.956917    0.500818    0.002939
C 0    4.695205    1.615493    0.002939
S 0    6.153639    1.656136    0.002939
C 0    6.329012    3.104558    0.002945
C 0    5.147458    3.730257    0.002945
N 0    4.193393    2.898081    0.002939
C 0    7.461611    3.814934   -0.009531
C 0    7.412670    5.151016   -0.017118
C 0    6.231188    5.776622   -0.022007
C 0    5.098554    5.066304   -0.009532
C 0    2.765629    3.247925    0.002934
C 0    2.613516    4.763310    0.002936
H 0   -9.382830   -1.907466    0.003386
H 0   -8.969065   -4.350184    0.003085
H 0   -6.625961   -5.247375    0.003180
H 0   -7.473638   -0.281281    0.003141
H 0   -1.770879   -3.581671    0.002939
H 0   -2.013611   -0.497834    0.002939
H 0    0.301890   -2.549035    0.002939
H 0   -4.269626   -5.492495    0.912165
H 0   -4.270027   -5.492987   -0.905903
H 0   -2.003395   -6.011982    0.002854
H 0   -2.008275   -4.438624   -0.906380
H 0   -2.007874   -4.438132    0.911688
H 0    0.059158    0.534802    0.002939
H 0    2.374658   -1.516399    0.002939
H 0    2.131926    1.567438    0.002939
H 0    4.447427   -0.483763    0.002939
H 0    8.433708    3.300141   -0.013553
H 0    8.344526    5.735515   -0.019337
H 0    6.190928    6.875792   -0.036294
H 0    4.126458    5.581114   -0.009532
H 0    2.281064    2.826963   -0.906327
H 0    2.280576    2.826543    0.911741
H 0    1.532495    5.028192    0.002931
H 0    3.098082    5.184273    0.912197
H 0    3.098569    5.184692   -0.905871

