# SP Test

[No Title]

  0  1
C 0   -8.302937   -2.272732    0.885044
C 0   -8.071084   -3.648115    0.884944
C 0   -6.772900   -4.156684    0.761825
C 0   -5.715488   -3.242905    0.638707
C 0   -5.952269   -1.872911    0.639413
C 0   -7.250023   -1.359159    0.762435
N 0   -4.378666   -3.550318    0.508226
C 0   -3.575004   -2.511563    0.408863
S 0   -4.448559   -1.042779    0.472408
C 0   -2.247274   -2.594730    0.275499
C 0   -3.875897   -4.963293    0.481335
C 0   -2.360694   -4.960920    0.327445
C 0   -1.513729   -1.480848    0.181969
C 0   -0.185999   -1.564015    0.048604
C 0    0.547546   -0.450133   -0.044926
C 0    1.875275   -0.533300   -0.178290
C 0    2.608820    0.580582   -0.271820
C 0    3.936550    0.497415   -0.405184
C 0    4.670095    1.611296   -0.498714
S 0    6.121037    1.650688   -0.646684
C 0    6.294255    3.098749   -0.689050
C 0    5.118197    3.725366   -0.580384
N 0    4.169733    2.894127   -0.469873
C 0    7.419186    3.807841   -0.827933
C 0    7.368567    5.143642   -0.853286
C 0    6.192088    5.770084   -0.749489
C 0    5.067122    5.061049   -0.610604
C 0    2.748965    3.245141   -0.331647
C 0    2.596312    4.760435   -0.342082
H 0   -9.332862   -1.899114    0.983354
H 0   -8.919120   -4.341836    0.982853
H 0   -6.587205   -5.240897    0.761605
H 0   -7.434869   -0.274801    0.762631
H 0   -1.758416   -3.579587    0.242725
H 0   -4.334904   -5.503962   -0.376429
H 0   -4.150911   -5.472521    1.432031
H 0   -1.901686   -4.420252    1.185208
H 0   -2.085680   -4.451693   -0.623252
H 0   -1.987639   -6.009348    0.307492
H 0   -2.002587   -0.495991    0.214742
H 0    0.302859   -2.548872    0.015831
H 0    0.058687    0.534724   -0.012152
H 0    2.364133   -1.518158   -0.211063
H 0    2.119962    1.565439   -0.239047
H 0    4.425408   -0.487443   -0.437958
H 0    8.386354    3.292225   -0.921337
H 0    8.294927    5.727222   -0.959551
H 0    6.149635    6.868885   -0.778350
H 0    4.099548    5.576615   -0.521202
H 0    2.358537    2.839707    0.628540
H 0    2.175418    2.809173   -1.180025
H 0    2.986740    5.165869   -1.302269
H 0    3.169859    5.196403    0.506296
H 0    1.520587    5.026202   -0.237425

