# opt td=(nstates=1,root=1) hf/sto-3g

[No Title]

1 1
 C                 -8.77497200    2.35665400    0.06362300
 C                 -9.31702800    1.07687500    0.10928400
 C                 -8.50317000   -0.04320900    0.15108800
 C                 -7.12476000    0.13929900    0.14886300
 C                 -6.58047100    1.42047200    0.09721400
 C                 -7.40033100    2.53572200    0.05578300
 N                 -6.11612800   -0.87369200    0.20014800
 C                 -4.81141300   -0.37484700    0.13704500
 S                 -4.82237300    1.38307400    0.08601700
 C                 -3.68368000   -1.13493600    0.12051400
 C                 -2.36149700   -0.58458300    0.07846500
 C                 -1.21706500   -1.30824000    0.06332400
 C                 -6.43497100   -2.31762800    0.25076000
 C                 -6.54763000   -2.95960800   -1.14958600
 C                  0.07630900   -0.69225000    0.02129000
 C                  1.26195200   -1.35752500    0.00522300
 C                  2.51281300   -0.67337400   -0.03732300
 C                  3.72026400   -1.31220200   -0.01775200
 C                  5.03998600   -0.76948500   -0.02340800
 S                  6.34872500   -1.84174200    0.37291600
 C                  7.52219600   -0.55663800    0.17860900
 C                  6.90932700    0.63446500   -0.18130900
 N                  5.48106000    0.48735600   -0.30940600
 C                  8.90303700   -0.62443000    0.34442500
 C                  9.64598200    0.52129900    0.14459200
 C                  9.02445900    1.72274000   -0.21490500
 C                  7.65745200    1.79637200   -0.38117700
 C                  4.64613100    1.61742800   -0.81083000
 C                  4.18698700    2.56408000    0.31894700
 H                 -9.42908500    3.21826700    0.03086200
 H                -10.39256200    0.94979000    0.11043200
 H                 -8.93691200   -1.03223600    0.18060400
 H                 -6.97626300    3.53160400    0.01674500
 H                 -3.76693200   -2.20729200    0.13698100
 H                 -2.27608600    0.50002200    0.05699300
 H                 -1.25812200   -2.38708500    0.08423700
 H                 -5.66393500   -2.81756200    0.83708800
 H                 -7.37480500   -2.42872100    0.79141900
 H                 -6.78811700   -4.01341100   -1.04620600
 H                 -7.33100800   -2.47904500   -1.72736200
 H                 -5.61095200   -2.86747100   -1.69018900
 H                  0.09658600    0.39658500    0.00091300
 H                  1.27566800   -2.43699000    0.02559700
 H                  2.45760400    0.40991500   -0.05425300
 H                  3.70244600   -2.38747900    0.07596400
 H                  9.38162200   -1.55517800    0.62449200
 H                 10.72180200    0.49275500    0.26886600
 H                  9.62655500    2.61106400   -0.36367800
 H                  7.18720000    2.73046200   -0.65423300
 H                  5.25507100    2.16072000   -1.53385700
 H                  3.80088700    1.19449400   -1.35114300
 H                  3.57224400    3.35126300   -0.10742900
 H                  3.60735900    2.03198600    1.06632100
 H                  5.04413500    3.01788100    0.80616100

