%chk=C:\Users\86131\Desktop\gaussian\B1-1-hf-jf.chk
# opt td=(nstates=1,root=1) hf/sto-3g

[No Title]

0 1
 C                 13.89210026   -0.64615944   -0.95901246
 C                 13.74299669   -2.01769959   -0.28216511
 C                 13.12746501   -1.83618895    1.11562097
 C                 11.92478520   -0.88754301    1.11955694
 C                 11.65222447   -0.05130918    0.13224853
 C                 12.52567464    0.07174368   -1.14601530
 C                 12.81939019    1.56305798   -1.47308209
 C                 11.75630823   -0.54907883   -2.34662990
 C                 10.43578223    0.84149217    0.15401136
 C                  9.19175002    0.40161410    0.16563746
 C                  7.95456314    1.24081431    0.16659131
 C                  6.77256114    0.63038100    0.16687102
 C                  5.42842632    1.24692602    0.16688272
 C                  4.31483353    0.52872908    0.16727168
 C                  2.92121597    1.05640898    0.16717253
 C                  1.91185740    0.18750884    0.16750442
 C                  0.46342251    0.47518992    0.16744508
 C                 -0.46330342   -0.47474448    0.16775429
 C                 -1.91173934   -0.18707336    0.16766273
 C                 -2.92108387   -1.05599014    0.16790662
 C                 -4.31470918   -0.52834855    0.16775369
 C                 -5.42827810   -1.24658391    0.16782118
 C                 -6.77242964   -0.63008421    0.16752071
 C                 -7.95442974   -1.24052907    0.16757866
 C                 -9.19161535   -0.40134789    0.16616417
 C                -10.43564169   -0.84126306    0.15451184
 C                -11.65213207    0.05141746    0.13220686
 C                -12.52642899   -0.07367091   -1.14529387
 C                  8.14193846    2.75520528    0.16644875
 C                  2.75095341    2.57290199    0.16665394
 C                 -2.75080750   -2.57248270    0.16833665
 C                 -8.14182204   -2.75491186    0.16823635
 C                -13.89263637    0.64474836   -0.95868373
 C                -13.74295150    2.01732986   -0.28409373
 C                -13.12675613    1.83787077    1.11365628
 C                -11.92409907    0.88919964    1.11838650
 C                -11.09723136    0.99691030    2.39915436
 C                -12.82063635   -1.56548081   -1.46968644
 C                -11.75773955    0.54502597   -2.34743743
 C                 11.09856621   -0.99328680    2.40090338
 H                 14.53735556   -0.02336463   -0.34326611
 H                 14.37443363   -0.75301654   -1.92788960
 H                 14.71431492   -2.50049193   -0.19915572
 H                 13.10890608   -2.66420765   -0.88316757
 H                 13.88355976   -1.44741595    1.79873258
 H                 12.81717093   -2.80133041    1.51306479
 H                 13.24868915    2.07046133   -0.61457472
 H                 13.52817761    1.62543933   -2.29320505
 H                 11.91889525    2.08938707   -1.76951875
 H                 10.80636533   -0.04415999   -2.48953021
 H                 12.33610510   -0.44890801   -3.25924163
 H                 11.55618335   -1.60263160   -2.18263081
 H                 10.62984958    1.90642434    0.13062461
 H                  9.01037256   -0.66666506    0.17296088
 H                  6.76381352   -0.45308847    0.16698162
 H                  5.37574482    2.32579616    0.16635618
 H                  4.39053367   -0.55248649    0.16763317
 H                  2.15486624   -0.86846459    0.16784926
 H                  0.15402090    1.51191998    0.16710146
 H                 -0.15390217   -1.51147413    0.16808887
 H                 -2.15476337    0.86889640    0.16735093
 H                 -4.39044612    0.55286455    0.16750861
 H                 -5.37554929   -2.32545269    0.16789456
 H                 -6.76370483    0.45338617    0.16706585
 H                 -9.01024265    0.66693059    0.17306521
 H                -10.62962076   -1.90621025    0.13142190
 H                  8.69104674    3.07065934   -0.71742857
 H                  7.19463064    3.27884635    0.17829950
 H                  8.71174938    3.06788188    1.03803257
 H                  3.22185574    3.00844517    1.04457630
 H                  3.22205563    3.00787005   -0.71144235
 H                  1.70762078    2.86121773    0.16645007
 H                 -1.70747836   -2.86079753    0.16851205
 H                 -3.22189547   -3.00750051    1.04641824
 H                 -3.22173020   -3.00798019   -0.70959619
 H                 -7.19453052   -3.27856651    0.18061483
 H                 -8.71185918   -3.06708400    1.03985427
 H                 -8.69072823   -3.07084087   -0.71560109
 H                -14.37547098    0.75014224   -1.92747133
 H                -14.53765994    0.02303318   -0.34160479
 H                -14.71414267    2.50042430   -0.20135494
 H                -13.10903700    2.66277691   -0.88642383
 H                -13.88253549    1.45013680    1.79770617
 H                -12.81622597    2.80358410    1.50952474
 H                -10.40835276    0.16828012    2.50976371
 H                -10.52339541    1.92142548    2.40870943
 H                -11.75679778    1.01482807    3.26330674
 H                -13.24924870   -2.07143558   -0.60998187
 H                -13.53016139   -1.62908386   -2.28907703
 H                -11.92049654   -2.09242918   -1.76608876
 H                -10.80793127    0.03977641   -2.49005412
 H                -12.33810142    0.44335424   -3.25952417
 H                -11.55741760    1.59884012   -2.18535618
 H                 10.40925442   -0.16484466    2.51022622
 H                 10.52527378   -1.91811549    2.41246109
 H                 11.75851792   -1.00917540    3.26480325

