%chk=C:\Users\86131\Desktop\gaussian\B2-1-hf-jf.chk
# opt td=(nstates=1,root=1) hf/sto-3g

[No Title]

0 1
 C                 -2.81577180   -0.19381369   -0.00000315
 C                 -3.99164885   -1.16615570   -0.00002663
 C                 -1.56726315   -0.62922081   -0.00006131
 C                 -0.34954865    0.21726913   -0.00002430
 C                  0.87300142   -0.28829911   -0.00008171
 C                  2.16711704    0.45809583   -0.00005070
 C                  3.34449759   -0.14843615    0.00002284
 C                 -3.18862751    1.29107490    0.00011634
 C                  2.15029846    1.99361784   -0.00005221
 C                  3.65944028   -1.63490750    0.00009815
 H                 -3.64924969   -2.19570478   -0.00012904
 H                 -4.61603847   -1.01032004    0.87751624
 H                 -4.61612683   -1.01017317   -0.87747978
 H                 -1.38425859   -1.69657753   -0.00013967
 H                 -0.51148926    1.28541820    0.00006803
 H                  0.96636818   -1.36571857   -0.00014715
 H                  4.23158845    0.47577403    0.00002391
 H                 -4.26677395    1.41293062   -0.00007326
 H                 -2.79429489    1.79569148    0.87866377
 H                 -2.79395624    1.79592608   -0.87814144
 H                  1.14497378    2.39435674   -0.00095099
 H                  2.66151638    2.38000440    0.87795359
 H                  2.66308162    2.38000439   -0.87713852
 H                  2.77231310   -2.25573092    0.00028973
 H                  4.25155575   -1.89069296   -0.87650155
 H                  4.25182164   -1.89053642    0.87656216

