%chk=C:\Users\86131\Desktop\gaussian\B2-1-hf.chk
# opt hf/sto-3g

[No Title]

0 1
 C                 -0.14629400   -2.20643800    1.29999300
 C                 -1.00882800   -3.14023900    2.09060000
 C                 -0.66117700   -1.07402100    0.80999500
 C                  0.10916900   -0.24002500    0.10388900
 C                 -0.40571300    0.89239200   -0.38610900
 C                  0.36463300    1.72638800   -1.09221500
 C                 -0.15024900    2.85880500   -1.58221300
 C                  1.29273800   -2.54057000    1.05802400
 C                  1.80366600    1.39225600   -1.33418500
 C                 -1.58928200    3.19293700   -1.34024300
 H                 -2.03844000   -2.72374500    2.16272700
 H                 -1.04443100   -4.13045000    1.58366400
 H                 -0.58510700   -3.26073200    3.11271100
 H                 -1.71858200   -0.82850000    0.98779500
 H                  1.16657500   -0.48554600   -0.07391100
 H                 -1.46311800    1.13791300   -0.20830900
 H                  0.48354400    3.54496500   -2.16315300
 H                  1.53414000   -3.51438600    1.53987100
 H                  1.47705900   -2.61338300   -0.03719000
 H                  1.93660000   -1.74275800    1.49127500
 H                  2.04506800    0.41844000   -0.85233800
 H                  1.98798700    1.31944300   -2.42939800
 H                  2.44752800    2.19006800   -0.90093300
 H                 -2.06216100    2.38497100   -0.73829200
 H                 -1.65794900    4.15598000   -0.78652700
 H                 -2.11737600    3.28623600   -2.31552800

