# opt td am1

[No Title]

0 1
 C                 -2.80371300   -0.19206600   -0.00000100
 C                 -3.95136600   -1.13142900   -0.00002800
 C                 -1.53388100   -0.64237400   -0.00005000
 C                 -0.36324300    0.20731400   -0.00001000
 C                  0.88475000   -0.29554500   -0.00006200
 C                  2.12450500    0.45775500   -0.00003500
 C                  3.33812400   -0.13348300    0.00002000
 C                 -3.15453600    1.24844300    0.00009700
 C                  2.08319000    1.94711900   -0.00005200
 C                  3.65182500   -1.57123300    0.00007900
 H                 -3.61635300   -2.19734200   -0.00021600
 H                 -4.58542500   -0.96048800    0.90607100
 H                 -4.58560800   -0.96022700   -0.90594900
 H                 -1.34203300   -1.73032100   -0.00012500
 H                 -0.55948900    1.29235500    0.00007800
 H                  1.00367400   -1.39530100   -0.00012700
 H                  4.23520700    0.51388100    0.00001400
 H                 -4.26264500    1.39457700   -0.00001400
 H                 -2.73511100    1.75386900    0.90605800
 H                 -2.73490500    1.75405300   -0.90566500
 H                  1.04465300    2.35182900   -0.00060900
 H                  2.60615100    2.34458500    0.90597800
 H                  2.60710800    2.34460600   -0.90551900
 H                  2.74857900   -2.22642700    0.00037200
 H                  4.26091000   -1.82341100   -0.90588800
 H                  4.26135900   -1.82323900    0.90579200

